3
-7.6408224649875081e+01 frame 0   xyz file generated by TeraChem
     O     0.0119228928    0.0093402642   -0.0064820105
     H     0.2650769983    0.9093318768    0.2741564484
     H     0.6072002355   -0.2640720907   -0.7301744291
3
-7.6408928705141307e+01 frame 1   xyz file generated by TeraChem
     O    -0.0028251031   -0.0013840791    0.0011984340
     H     0.2798216509    0.8896108556    0.2484225203
     H     0.6072035665   -0.2336267117   -0.7121209539
3
-7.6408947912944399e+01 frame 2   xyz file generated by TeraChem
     O    -0.0014561937   -0.0002263064    0.0002998534
     H     0.2776781764    0.8928649961    0.2515321133
     H     0.6079781950   -0.2380385656   -0.7143320023
3
-7.6408948109186298e+01 frame 3   xyz file generated by TeraChem
     O    -0.0017239244   -0.0002612159    0.0002482950
     H     0.2774292998    0.8930138681    0.2510061731
     H     0.6084948100   -0.2381525793   -0.7137545065
