39
  -107.044379870000       2.036733506981914E-003 !
 O          0.0059933208        1.1078020235       -0.3235600817
 C         -0.0751801847       -0.0951571981       -0.1329286921
 N         -1.1072082846       -0.9276293566       -0.0738458901
 C         -2.3880810273       -0.5201880957       -0.0540415069
 C         -2.8394857428        0.8002885351        0.1792176303
 C         -4.1885428735        1.0786831876        0.2397556881
 C         -4.6586556613        2.4824871838        0.4678184416
 F         -5.0326634630        3.0999949195       -0.6775146753
 F         -3.7461569434        3.2853648761        1.0327715610
 F         -5.7460967463        2.5482664191        1.2690334434
 C         -5.1551389169        0.0928479685        0.0623853939
 C         -4.7156148535       -1.2069079283       -0.1716385636
 C         -5.7490326748       -2.2770676715       -0.3335938636
 F         -6.7707345440       -1.9101130229       -1.1358966326
 F         -6.3314646847       -2.6228495854        0.8397042856
 F         -5.2772891144       -3.4246113618       -0.8491175515
 C         -3.3739510402       -1.5171668010       -0.2238359552
 N          1.1075278356       -0.8957257209        0.0215119745
 C          2.4102839025       -0.5436686687        0.0006380459
 C          2.8313125177        0.7868160971       -0.1830075658
 C          4.1769778488        1.0882123159       -0.1928767891
 C          4.6446190011        2.4979537482       -0.4055495656
 F          3.6785961979        3.4175214069       -0.3467906866
 F          5.2435244071        2.6590674374       -1.6073105178
 F          5.5728041202        2.8717320778        0.5021697181
 C          5.1560916863        0.1111023410       -0.0300678342
 C          4.7371981894       -1.2003831272        0.1477186824
 C          5.7639571271       -2.2715852571        0.3613267678
 F          6.9281346221       -2.0245014334       -0.2634799431
 F          6.0796430073       -2.4304353504        1.6662630879
 F          5.3662424442       -3.4839558525       -0.0624928289
 C          3.3958731129       -1.5326525294        0.1697385562
 H         -2.1081733092        1.5824786545        0.3076241748
 H         -6.2066911255        0.3265525454        0.1056036198
 H         -3.0470278592       -2.5295084142       -0.4011087996
 H          0.8796397670       -1.8719507192        0.1516337344
 H          2.0762347641        1.5471707624       -0.3119107273
 H          6.2032694856        0.3658153173       -0.0444203699
 H          3.0977017760       -2.5610267253        0.3109293793
  39
  -107.044379830000       2.036647298363681E-003 !
 O          0.0144755365        1.1485637636       -0.1329602899
 C         -0.0758671438       -0.0685795959       -0.1523392601
 N         -1.1139477564       -0.8904019964       -0.2439632851
 C         -2.3919873104       -0.4835063477       -0.1560724888
 C         -3.3840583978       -1.4242896390       -0.5100488340
 C         -4.7237709984       -1.1184128996       -0.4060895100
 C         -5.7627612050       -2.1337830466       -0.7650598635
 F         -5.3000257821       -3.1572956653       -1.5024423948
 F         -6.7916987161       -1.6146275573       -1.4674651909
 F         -6.3335151507       -2.7044290336        0.3231761386
 C         -5.1550836165        0.1191408108        0.0625217723
 C         -4.1822717331        1.0478587569        0.4216811547
 C         -4.6444005393        2.3885235309        0.9040855166
 F         -5.7280218470        2.3112067128        1.7096118827
 F         -5.0207787865        3.2057739192       -0.1075349346
 F         -3.7257133199        3.0715438381        1.6010772728
 C         -2.8350259395        0.7749216919        0.3150856944
 N          1.1003579293       -0.8930246951       -0.1316702655
 C          2.4056592443       -0.5528748973       -0.0867669792
 C          2.8371063319        0.7860590542       -0.0399023056
 C          4.1849463068        1.0739667741        0.0070696072
 C          4.6642769076        2.4953809131        0.0392307086
 F          3.7038079685        3.4002753529        0.2413893669
 F          5.2784773422        2.8508735070       -1.1119660888
 F          5.5841552827        2.7034286586        1.0066050824
 C          5.1560021642        0.0755242894        0.0057588531
 C          4.7267871692       -1.2438216081       -0.0434327227
 C          5.7466723534       -2.3420108163       -0.0105283870
 F          6.0787839106       -2.6996855050        1.2502232079
 F          5.3338085550       -3.4730071983       -0.6084529599
 F          6.9045685873       -2.0091993136       -0.6071451055
 C          3.3831024730       -1.5642121776       -0.0839173960
 H         -3.0636462795       -2.3891376878       -0.8699932520
 H         -6.2050520012        0.3492324007        0.1450760623
 H         -2.0987999914        1.5144028486        0.5875015336
 H          0.8650175491       -1.8753201535       -0.1716102850
 H          2.0881939498        1.5632532841       -0.0408128523
 H          6.2050997534        0.3204266863        0.0390735165
 H          3.0765408891       -2.5991263886       -0.1203786390