  39
       -107.04437987
 O          0.0059933208        1.1078020235       -0.3235600817
 C         -0.0751801847       -0.0951571981       -0.1329286921
 N         -1.1072082846       -0.9276293566       -0.0738458901
 C         -2.3880810273       -0.5201880957       -0.0540415069
 C         -2.8394857428        0.8002885351        0.1792176303
 C         -4.1885428735        1.0786831876        0.2397556881
 C         -4.6586556613        2.4824871838        0.4678184416
 F         -5.0326634630        3.0999949195       -0.6775146753
 F         -3.7461569434        3.2853648761        1.0327715610
 F         -5.7460967463        2.5482664191        1.2690334434
 C         -5.1551389169        0.0928479685        0.0623853939
 C         -4.7156148535       -1.2069079283       -0.1716385636
 C         -5.7490326748       -2.2770676715       -0.3335938636
 F         -6.7707345440       -1.9101130229       -1.1358966326
 F         -6.3314646847       -2.6228495854        0.8397042856
 F         -5.2772891144       -3.4246113618       -0.8491175515
 C         -3.3739510402       -1.5171668010       -0.2238359552
 N          1.1075278356       -0.8957257209        0.0215119745
 C          2.4102839025       -0.5436686687        0.0006380459
 C          2.8313125177        0.7868160971       -0.1830075658
 C          4.1769778488        1.0882123159       -0.1928767891
 C          4.6446190011        2.4979537482       -0.4055495656
 F          3.6785961979        3.4175214069       -0.3467906866
 F          5.2435244071        2.6590674374       -1.6073105178
 F          5.5728041202        2.8717320778        0.5021697181
 C          5.1560916863        0.1111023410       -0.0300678342
 C          4.7371981894       -1.2003831272        0.1477186824
 C          5.7639571271       -2.2715852571        0.3613267678
 F          6.9281346221       -2.0245014334       -0.2634799431
 F          6.0796430073       -2.4304353504        1.6662630879
 F          5.3662424442       -3.4839558525       -0.0624928289
 C          3.3958731129       -1.5326525294        0.1697385562
 H         -2.1081733092        1.5824786545        0.3076241748
 H         -6.2066911255        0.3265525454        0.1056036198
 H         -3.0470278592       -2.5295084142       -0.4011087996
 H          0.8796397670       -1.8719507192        0.1516337344
 H          2.0762347641        1.5471707624       -0.3119107273
 H          6.2032694856        0.3658153173       -0.0444203699
 H          3.0977017760       -2.5610267253        0.3109293793
  39
       -107.04429757
 O         -0.0555841110       -0.0670495360       -1.1481511375
 C         -0.0640661147        0.0098028332        0.0703106406
 N         -1.0406753759        0.1020896043        0.9659690380
 C         -2.3453271682        0.1380439790        0.6389463220
 C         -3.2567793637        0.2273731653        1.7139718612
 C         -4.6165720489        0.2792661369        1.4941844908
 C         -5.5628095040        0.3438746991        2.6517173013
 F         -5.0087765409        0.8057291664        3.7862121438
 F         -6.0803598812       -0.8664092271        2.9726311411
 F         -6.6328113994        1.1326053363        2.4219928304
 C         -5.1478965415        0.2374373807        0.2090136299
 C         -4.2552289547        0.1453700679       -0.8555814379
 C         -4.8355931617        0.1274409176       -2.2363099513
 F         -5.3270398418        1.3349485279       -2.6067228106
 F         -5.8822138862       -0.7219521735       -2.3521430496
 F         -3.9751353771       -0.2242599626       -3.1995287377
 C         -2.8904524298        0.0984634638       -0.6665964737
 N          1.1661453166        0.0095497195        0.8117393932
 C          2.4443953014       -0.0726235509        0.3870028183
 C          2.7835915157       -0.1873730757       -0.9747169059
 C          4.1075635798       -0.2697590578       -1.3499480664
 C          4.4920590807       -0.3858806200       -2.7955694427
 F          3.4627968800       -0.4976421842       -3.6378389491
 F          5.2843759241       -1.4560636154       -3.0278321480
 F          5.2091142724        0.6797288541       -3.2183485991
 C          5.1456713596       -0.2414761402       -0.4208142214
 C          4.8078844792       -0.1252866556        0.9195102197
 C          5.8773322807       -0.1097795516        1.9698973288
 F          5.7010500832        0.8675897369        2.8806783123
 F          5.9192397606       -1.2579524975        2.6808586523
 F          7.1151658275        0.0609170126        1.4805334654
 C          3.4889548523       -0.0448772080        1.3275588119
 H         -2.8577127670        0.2586600233        2.7154553136
 H         -6.2123575063        0.2757217628        0.0424395341
 H         -2.2169540091        0.0276891008       -1.5061333647
 H          0.9972348420        0.0854307166        1.8055751491
 H          1.9838142407       -0.2085151935       -1.6991078027
 H          6.1740237181       -0.3055218248       -0.7365011737
 H          3.2572744477        0.0443818251        2.3788067441
  39
       -107.04413699
 O          0.0131837214        1.1273930191        0.1306824288
 C         -0.0732217755       -0.0880737086        0.0573512004
 N         -1.1060478789       -0.9229806193        0.0294575995
 C         -2.3880917629       -0.5155389919        0.0270806132
 C         -2.8501214953        0.8198732821       -0.0286399897
 C         -4.2026362109        1.0952150229       -0.0475929821
 C         -4.6442494898        2.5238021249       -0.1417339052
 F         -4.5335409263        3.0216023494       -1.3951946118
 F         -3.9402655314        3.3582797760        0.6417616554
 F         -5.9361509554        2.7128982214        0.1982847535
 C         -5.1615297641        0.0886487923       -0.0168598523
 C         -4.7114050523       -1.2279050828        0.0447836468
 C         -5.7402685515       -2.3143060156        0.0639786899
 F         -6.3775438485       -2.4523124643       -1.1230347160
 F         -6.7232059478       -2.0948004918        0.9640358027
 F         -5.2519868283       -3.5321861222        0.3514752393
 C         -3.3681786934       -1.5326683818        0.0627504535
 N          1.1077689774       -0.9036164000       -0.0027822224
 C          2.4119279980       -0.5574687920        0.0129954161
 C          2.8403804150        0.7782506198        0.1096504986
 C          4.1894827622        1.0745589771        0.1226512536
 C          4.6027635394        2.5152864107        0.2071675140
 F          3.9621470747        3.1923271251        1.1730638321
 F          4.3677579221        3.1874520025       -0.9376903423
 F          5.9166135757        2.6780819674        0.4559559198
 C          5.1620922052        0.0846974641        0.0375492611
 C          4.7348691375       -1.2351860665       -0.0547965625
 C          5.7808870648       -2.3039633115       -0.1599007577
 F          6.4398478946       -2.2673614882       -1.3383949089
 F          6.7342973082       -2.1940668440        0.7863083225
 F          5.2970438071       -3.5512295499       -0.0516559290
 C          3.3939538590       -1.5624527072       -0.0699925467
 H         -2.1256170892        1.6187966599       -0.0500559478
 H         -6.2153607970        0.3145548143       -0.0320972164
 H         -3.0336744970       -2.5569533834        0.1072407064
 H          0.8747654991       -1.8853450041       -0.0651826677
 H          2.0908859097        1.5518485965        0.1769367737
 H          6.2123011811        0.3258548374        0.0491047455
 H          3.0896417741       -2.5957929131       -0.1443112560
